** sch_path: /home/omare/Documents/UWASIC/XSchemOptimizer/examples/template/OpAmp_tb.sch
**.subckt OpAmp_tb
x1 ?1 vdd ?1 vout ?1 V- ?1 V+ ?1 net2 ?1 net1  OpAmp
**** end_element
V1 ?1 net3 ?1 net4  DC 0.9V 
**** end_element
V2 ?1 vdd ?1 GND  DC 1.8V 
**** end_element
V4 ?1 net2 ?1 net1  DC 0.7V 
**** end_element
C1 ?1 vout ?1 GND  5p m=1
**** end_element
V3 ?1 V+ ?1 net3  DC 0V AC 1mV 
**** end_element
V5 ?1 V- ?1 net3  DC 0V AC 1mV 
**** end_element
**** begin user architecture code


.ac dec 50 1 1G
.control
run
let dc_gain_val = vdb(vout)[0]
echo 'DC_GAIN:' $&dc_gain_val
* Find gain-bandwidth product (GBW)
let gbw_freq = 0
let dc_gain_linear = db(vout)[0]
let target_gain = dc_gain_linear - 3
let i = 1
while i < length(vdb(vout))
  if vdb(vout)[i] <= target_gain
    let gbw_freq = frequency[i-1]
    break
  end
  let i = i + 1
end
if gbw_freq = 0
  let gbw_freq = frequency[length(frequency)-1]
end
echo 'GBW:' $&gbw_freq
* Find unity gain frequency for phase margin calculation
let unity_freq = 0
let i = 0
while i < length(vdb(vout))
  if vdb(vout)[i] <= 0
    let unity_freq = frequency[i]
    break
  end
  let i = i + 1
end
echo 'UNITY_FREQ:' $&unity_freq
.endc


.ac dec 50 1 1G
.control
run
let dc_gain_val = vdb(vout)[0]
echo 'DC_GAIN:' $&dc_gain_val
* Find gain-bandwidth product (GBW)
let gbw_freq = 0
let dc_gain_linear = db(vout)[0]
let target_gain = dc_gain_linear - 3
let i = 1
while i < length(vdb(vout))
  if vdb(vout)[i] <= target_gain
    let gbw_freq = frequency[i-1]
    break
  end
  let i = i + 1
end
if gbw_freq = 0
  let gbw_freq = frequency[length(frequency)-1]
end
echo 'GBW:' $&gbw_freq
* Find unity gain frequency for phase margin calculation
let unity_freq = 0
let i = 0
while i < length(vdb(vout))
  if vdb(vout)[i] <= 0
    let unity_freq = frequency[i]
    break
  end
  let i = i + 1
end
echo 'UNITY_FREQ:' $&unity_freq
.endc


.tran 2n 15u
.control
run
let vout_deriv = deriv(v(vout))
let max_slew = maximum(vout_deriv)
let min_slew = minimum(vout_deriv)
let slew_pos = max_slew
let slew_neg = -min_slew
echo 'SLEW_RATE_POS:' $&slew_pos
echo 'SLEW_RATE_NEG:' $&slew_neg
.endc


.tran 2n 15u
.control
run
let vout_deriv = deriv(v(vout))
let max_slew = maximum(vout_deriv)
let min_slew = minimum(vout_deriv)
let slew_pos = max_slew
let slew_neg = -min_slew
echo 'SLEW_RATE_POS:' $&slew_pos
echo 'SLEW_RATE_NEG:' $&slew_neg
.endc


.op
.control
run
* Input bias current (critical for TIA - photodiode loading)
let ibias_pos = i(v3_vplus_input)
let ibias_neg = -i(v5_vminus_input)
let ibias_avg = (abs(ibias_pos) + abs(ibias_neg))/2
echo 'INPUT_BIAS_CURRENT:' $&ibias_avg
* Input offset voltage
let vos = v(vplus) - v(vminus)
echo 'INPUT_OFFSET:' $&vos
.endc


.ac dec 20 1 100k
.control
run
* Calculate input capacitance (affects TIA bandwidth when connected to photodiode)
let input_current = i(v3_vplus_input)
let input_cap = imag(input_current)/(2*pi*frequency[0])
echo 'INPUT_CAP:' $&input_cap
.endc


.noise v(vout) v5_vminus_input dec 30 1 1G
.control
run
* Input-referred voltage noise density at 1kHz (critical for TIA SNR)
let noise_1khz_idx = 0
let target_freq = 1000
let i = 0
while i < length(frequency)
  if frequency[i] >= target_freq
    let noise_1khz_idx = i
    break
  end
  let i = i + 1
end
let voltage_noise_1khz = sqrt(inoise_spectrum[noise_1khz_idx])
echo 'VOLTAGE_NOISE_1KHZ:' $&voltage_noise_1khz
* Low frequency (1Hz) noise for 1/f noise assessment
let noise_1hz_idx = 0
let i = 0
while i < length(frequency)
  if frequency[i] >= 1
    let noise_1hz_idx = i
    break
  end
  let i = i + 1
end
let voltage_noise_1hz = sqrt(inoise_spectrum[noise_1hz_idx])
echo 'VOLTAGE_NOISE_1HZ:' $&voltage_noise_1hz
.endc


.noise v(vout) v5_vminus_input dec 30 1 1G
.control
run
* Input-referred voltage noise density at 1kHz (critical for TIA SNR)
let noise_1khz_idx = 0
let target_freq = 1000
let i = 0
while i < length(frequency)
  if frequency[i] >= target_freq
    let noise_1khz_idx = i
    break
  end
  let i = i + 1
end
let voltage_noise_1khz = sqrt(inoise_spectrum[noise_1khz_idx])
echo 'VOLTAGE_NOISE_1KHZ:' $&voltage_noise_1khz
* Low frequency (1Hz) noise for 1/f noise assessment
let noise_1hz_idx = 0
let i = 0
while i < length(frequency)
  if frequency[i] >= 1
    let noise_1hz_idx = i
    break
  end
  let i = i + 1
end
let voltage_noise_1hz = sqrt(inoise_spectrum[noise_1hz_idx])
echo 'VOLTAGE_NOISE_1HZ:' $&voltage_noise_1hz
.endc


.op
.control
run
* Input bias current (critical for TIA - photodiode loading)
let ibias_pos = i(v3_vplus_input)
let ibias_neg = -i(v5_vminus_input)
let ibias_avg = (abs(ibias_pos) + abs(ibias_neg))/2
echo 'INPUT_BIAS_CURRENT:' $&ibias_avg
* Input offset voltage
let vos = v(vplus) - v(vminus)
echo 'INPUT_OFFSET:' $&vos
.endc


.op
.control
run
let power_val = v(vdd)*(-i(V2))
echo 'POWER:' $&power_val
.endc


.op
.control
run
* Calculate total transistor area
let area_m1 = @M1[W] * @M1[L]
let area_m2 = @M2[W] * @M2[L] 
let area_m3 = @M3[W] * @M3[L]
let area_m4 = @M4[W] * @M4[L]
let area_m5 = @M5[W] * @M5[L]
let area_m6 = @M6[W] * @M6[L]
let total_area = area_m1 + area_m2 + area_m3 + area_m4 + area_m5 + area_m6
echo 'TOTAL_AREA:' $&total_area
.endc



.param mc_mm_switch=0
.param mc_pr_switch=0
.include /home/omare/.volare/sky130A/libs.tech/ngspice/corners/tt.spice
.include /home/omare/.volare/sky130A/libs.tech/ngspice/r+c/res_typical__cap_typical.spice
.include /home/omare/.volare/sky130A/libs.tech/ngspice/r+c/res_typical__cap_typical__lin.spice
.include /home/omare/.volare/sky130A/libs.tech/ngspice/corners/tt/specialized_cells.spice

**** end user architecture code
**.ends

* expanding   symbol:  OpAmp.sym # of pins=6
** sym_path: /home/omare/Documents/UWASIC/XSchemOptimizer/examples/template/OpAmp.sym
** sch_path: /home/omare/Documents/UWASIC/XSchemOptimizer/examples/template/OpAmp.sch
.subckt OpAmp VDD Vout Vminus Vplus Vbias VSS 
*.ipin Vplus
*.ipin Vminus
*.iopin VDD
*.iopin VSS
*.ipin Vbias
*.opin Vout
**** spice_prefix X
M1 ?1 net2 ?1 Vminus ?1 net1 ?1 VSS  sky130_fd_pr__nfet_01v8 L=0.5 W=10.00390625
+ nf=1 ad='int((nf+1)/2) * W/nf * 0.29' as='int((nf+2)/2) * W/nf * 0.29' pd='2*int((nf+1)/2) * (W/nf + 0.29)' ps='2*int((nf+2)/2) * (W/nf + 0.29)'
+ nrd='0.29 / W' nrs='0.29 / W' sa=0 sb=0 sd=0 
+ mult=1 m=1
**** end_element
**** spice_prefix X
M2 ?1 net3 ?1 Vplus ?1 net1 ?1 VSS  sky130_fd_pr__nfet_01v8 L=0.5 W=10
+ nf=1 ad='int((nf+1)/2) * W/nf * 0.29' as='int((nf+2)/2) * W/nf * 0.29' pd='2*int((nf+1)/2) * (W/nf + 0.29)' ps='2*int((nf+2)/2) * (W/nf + 0.29)'
+ nrd='0.29 / W' nrs='0.29 / W' sa=0 sb=0 sd=0 
+ mult=1 m=1
**** end_element
**** spice_prefix X
M3 ?1 net2 ?1 net2 ?1 VDD ?1 VDD  sky130_fd_pr__pfet_01v8 L=0.5 W=5
+ nf=1 ad='int((nf+1)/2) * W/nf * 0.29' as='int((nf+2)/2) * W/nf * 0.29' pd='2*int((nf+1)/2) * (W/nf + 0.29)' ps='2*int((nf+2)/2) * (W/nf + 0.29)'
+ nrd='0.29 / W' nrs='0.29 / W' sa=0 sb=0 sd=0 
+ mult=1 m=1
**** end_element
**** spice_prefix X
M4 ?1 net3 ?1 net2 ?1 VDD ?1 VDD  sky130_fd_pr__pfet_01v8 L=0.5 W=5
+ nf=1 ad='int((nf+1)/2) * W/nf * 0.29' as='int((nf+2)/2) * W/nf * 0.29' pd='2*int((nf+1)/2) * (W/nf + 0.29)' ps='2*int((nf+2)/2) * (W/nf + 0.29)'
+ nrd='0.29 / W' nrs='0.29 / W' sa=0 sb=0 sd=0 
+ mult=1 m=1
**** end_element
**** spice_prefix X
M5 ?1 net1 ?1 Vbias ?1 VSS ?1 VSS  sky130_fd_pr__nfet_01v8 L=0.5 W=20
+ nf=1 ad='int((nf+1)/2) * W/nf * 0.29' as='int((nf+2)/2) * W/nf * 0.29' pd='2*int((nf+1)/2) * (W/nf + 0.29)' ps='2*int((nf+2)/2) * (W/nf + 0.29)'
+ nrd='0.29 / W' nrs='0.29 / W' sa=0 sb=0 sd=0 
+ mult=1 m=1
**** end_element
**** spice_prefix X
M6 ?1 Vout ?1 net3 ?1 VDD ?1 VDD  sky130_fd_pr__pfet_01v8 L=0.5 W=15
+ nf=1 ad='int((nf+1)/2) * W/nf * 0.29' as='int((nf+2)/2) * W/nf * 0.29' pd='2*int((nf+1)/2) * (W/nf + 0.29)' ps='2*int((nf+2)/2) * (W/nf + 0.29)'
+ nrd='0.29 / W' nrs='0.29 / W' sa=0 sb=0 sd=0 
+ mult=1 m=1
**** end_element
**** spice_prefix X
C1 ?1 Vout ?1 net3  sky130_fd_pr__cap_mim_m3_1 W=1 L=1 MF=1 m=1
**** end_element
**** spice_prefix X
M7 ?1 Vout ?1 Vbias ?1 VSS ?1 VSS  sky130_fd_pr__nfet_01v8 L=0.3 W=1
+ nf=1 ad='int((nf+1)/2) * W/nf * 0.29' as='int((nf+2)/2) * W/nf * 0.29' pd='2*int((nf+1)/2) * (W/nf + 0.29)' ps='2*int((nf+2)/2) * (W/nf + 0.29)'
+ nrd='0.29 / W