** sch_path: /home/omare/Documents/UWASIC/XSchemOptimizer/examples/template/temp_testbench_64cd04da13754364be592d5acdec168c.sch
**.subckt temp_testbench_64cd04da13754364be592d5acdec168c
x1 ?1 vdd ?1 vout ?1 V- ?1 V+ ?1 net2 ?1 net1  temp_schemsym_64cd04da13754364be592d5acdec168c
**** end_element
V1 ?1 net3 ?1 net4  DC 0.9V 
**** end_element
V2 ?1 vdd ?1 GND  DC 1.8V 
**** end_element
V4 ?1 net2 ?1 net1  DC 0.7V 
**** end_element
C1 ?1 vout ?1 GND  5p m=1
**** end_element
V3 ?1 V+ ?1 net3  DC 0V AC 1V 
**** end_element
V5 ?1 V- ?1 net3  DC 0V 
**** end_element
**** begin user architecture code


.ac dec 50 1 1G
.control
run
let dc_gain_val = vdb(vout)[0]
echo 'DC_GAIN:' $&dc_gain_val
* Find gain-bandwidth product (GBW)
let gbw_freq = 0
let dc_gain_linear = db(vout)[0]
let target_gain = dc_gain_linear - 3
let i = 1
while i < length(vdb(vout))
  if vdb(vout)[i] <= target_gain
    let gbw_freq = frequency[i-1]
    break
  end
  let i = i + 1
end
if gbw_freq = 0
  let gbw_freq = frequency[length(frequency)-1]
end
echo 'GBW:' $&gbw_freq
* Find unity gain frequency for phase margin calculation
let unity_freq = 0
let i = 0
while i < length(vdb(vout))
  if vdb(vout)[i] <= 0
    let unity_freq = frequency[i]
    break
  end
  let i = i + 1
end
echo 'UNITY_FREQ:' $&unity_freq
.endc


.lib /home/omare/.volare/sky130A/libs.tech/ngspice/sky130.lib.spice tt 
**** end user architecture code
**.ends

* expanding   symbol:  temp_schemsym_64cd04da13754364be592d5acdec168c.sym # of pins=6
** sym_path: /home/omare/Documents/UWASIC/XSchemOptimizer/examples/template/temp_schemsym_64cd04da13754364be592d5acdec168c.sym
** sch_path: /home/omare/Documents/UWASIC/XSchemOptimizer/examples/template/temp_schemsym_64cd04da13754364be592d5acdec168c.sch
.subckt temp_schemsym_64cd04da13754364be592d5acdec168c VDD Vout Vminus Vplus Vbias VSS 
*.ipin Vplus
*.ipin Vminus
*.iopin VDD
*.iopin VSS
*.ipin Vbias
*.opin Vout
**** spice_prefix X
M1 ?1 net2 ?1 Vminus ?1 net1 ?1 VSS  sky130_fd_pr__nfet_01v8 L=0.5 W=10.5
+ nf=1 ad='int((nf+1)/2) * W/nf * 0.29' as='int((nf+2)/2) * W/nf * 0.29' pd='2*int((nf+1)/2) * (W/nf + 0.29)' ps='2*int((nf+2)/2) * (W/nf + 0.29)'
+ nrd='0.29 / W' nrs='0.29 / W' sa=0 sb=0 sd=0 
+ mult=1 m=1
**** end_element
**** spice_prefix X
M2 ?1 net3 ?1 Vplus ?1 net1 ?1 VSS  sky130_fd_pr__nfet_01v8 L=0.5 W=10
+ nf=1 ad='int((nf+1)/2) * W/nf * 0.29' as='int((nf+2)/2) * W/nf * 0.29' pd='2*int((nf+1)/2) * (W/nf + 0.29)' ps='2*int((nf+2)/2) * (W/nf + 0.29)'
+ nrd='0.29 / W' nrs='0.29 / W' sa=0 sb=0 sd=0 
+ mult=1 m=1
**** end_element
**** spice_prefix X
M3 ?1 net2 ?1 net2 ?1 VDD ?1 VDD  sky130_fd_pr__pfet_01v8 L=0.5 W=5
+ nf=1 ad='int((nf+1)/2) * W/nf * 0.29' as='int((nf+2)/2) * W/nf * 0.29' pd='2*int((nf+1)/2) * (W/nf + 0.29)' ps='2*int((nf+2)/2) * (W/nf + 0.29)'
+ nrd='0.29 / W' nrs='0.29 / W' sa=0 sb=0 sd=0 
+ mult=1 m=1
**** end_element
**** spice_prefix X
M4 ?1 net3 ?1 net2 ?1 VDD ?1 VDD  sky130_fd_pr__pfet_01v8 L=0.5 W=5
+ nf=1 ad='int((nf+1)/2) * W/nf * 0.29' as='int((nf+2)/2) * W/nf * 0.29' pd='2*int((nf+1)/2) * (W/nf + 0.29)' ps='2*int((nf+2)/2) * (W/nf + 0.29)'
+ nrd='0.29 / W' nrs='0.29 / W' sa=0 sb=0 sd=0 
+ mult=1 m=1
**** end_element
**** spice_prefix X
M5 ?1 net1 ?1 Vbias ?1 VSS ?1 VSS  sky130_fd_pr__nfet_01v8 L=0.5 W=20
+ nf=1 ad='int((nf+1)/2) * W/nf * 0.29' as='int((nf+2)/2) * W/nf * 0.29' pd='2*int((nf+1)/2) * (W/nf + 0.29)' ps='2*int((nf+2)/2) * (W/nf + 0.29)'
+ nrd='0.29 / W' nrs='0.29 / W' sa=0 sb=0 sd=0 
+ mult=1 m=1
**** end_element
**** spice_prefix X
M6 ?1 Vout ?1 net3 ?1 VDD ?1 VDD  sky130_fd_pr__pfet_01v8 L=0.5 W=15
+ nf=1 ad='int((nf+1)/2) * W/nf * 0.29' as='int((nf+2)/2) * W/nf * 0.29' pd='2*int((nf+1)/2) * (W/nf + 0.29)' ps='2*int((nf+2)/2) * (W/nf + 0.29)'
+ nrd='0.29 / W' nrs='0.29 / W' sa=0 sb=0 sd=0 
+ mult=1 m=1
**** end_element
**** spice_prefix X
C1 ?1 Vout ?1 net3  sky130_fd_pr__cap_mim_m3_1 W=1 L=1 MF=1 m=1
**** end_element
**** spice_prefix X
M7 ?1 Vout ?1 Vbias ?1 VSS ?1 VSS  sky130_fd_pr__nfet_01v8 L=0.3 W=1
+ nf=1 ad='int((nf+1)/2) * W/nf * 0.29' as='int((nf+2)/2) * W/nf * 0.29' pd='2*int((nf+1)/2) * (W/nf + 0.